/*--------------------------------*- C++ -*----------------------------------*\
| =========                 |                                                 |
| \\      /  F ield         | OpenFOAM: The Open Source CFD Toolbox           |
|  \\    /   O peration     | Version:  v1912                                 |
|   \\  /    A nd           | Website:  www.openfoam.com                      |
|    \\/     M anipulation  |                                                 |
\*---------------------------------------------------------------------------*/
FoamFile
{
    version     2.0;
    format      ascii;
    class       dictionary;
    object      blockMeshDict;
}
// * * * * * * * * * * * * * * * * * * * * * * * * * * * * * * * * * * * * * //

convertToMeters   1;

t 0.1; //extrude thickness

vertices
(
    (-4 -4 $t)
    (4 -4 $t)
    
    (-4 -4 0)
    (4 -4 0)

    (-4 4 $t)
    (4 4 $t)

    (-4 4 0)
    (4 4 0)
);

blocks
(
    hex (2 3 7 6 0 1 5 4) (400 400 1) simpleGrading (1 1 1)
);

edges
(
);

boundary
(
    top
    {
        type patch;
        faces
        (
            (4 5 7 6)
        );
    }

    bottom
    {
        type patch;
        faces
        (
           // (0 4 7 3)
           // (2 6 5 1)
            (0 2 3 1)
        );
    }

    inlet
    {
	type patch;
	faces
	(
	    (4 6 2 0)
	);
    }
        
    outlet
    {
	type patch;
	faces
	(
	    (1 3 7 5)
	);
    }

    front
    {
        type patch;
        faces
        (
            (0 1 5 4)
        );
    }

    back
    {
	type patch;
	faces
	(
	    (2 6 7 3)
	);
    }
);

mergePatchPairs
(
);

// ************************************************************************* //
