/*--------------------------------*- C++ -*----------------------------------*\
| =========                 |                                                 |
| \\      /  F ield         | OpenFOAM: The Open Source CFD Toolbox           |
|  \\    /   O peration     | Version:  2.4.0                                 |
|   \\  /    A nd           | Web:      www.OpenFOAM.org                      |
|    \\/     M anipulation  |                                                 |
\*---------------------------------------------------------------------------*/
FoamFile
{
    version     2.0;
    format      ascii;
    class       dictionary;
    location    "system";
    object      fvSolution;
}
// * * * * * * * * * * * * * * * * * * * * * * * * * * * * * * * * * * * * * //

solvers
{

    "(pcorr|pcorrFinal)"
    {
        solver GAMG;
        tolerance        1e-20;
        relTol           0;

        smoother         FDIC;

        cacheAgglomeration true;
        nCellsInCoarsestLevel 10;
        agglomerator     faceAreaPair;
        mergeLevels      1;
//	maxIter	50000;
    }


    p
    {
        solver GAMG;
        tolerance        1e-7;
        relTol           1e-2;
        smoother         FDIC;
        cacheAgglomeration true;
        nCellsInCoarsestLevel 10;
        agglomerator     faceAreaPair;
        mergeLevels      1;
//	maxIter 50000;
    }

    pFinal
    {
        $p;
	tolerance	1e-20;
        relTol          0;
	maxIter 10000;
    }

    "(U|k|epsilon|nuTilda|cellDisplacement)"
    {
        solver          smoothSolver;
        smoother        GaussSeidel;
     //   nSmooth         0;
        tolerance       1e-7;
	minIter		5;
        relTol          0;
    }

    "(U|k|epsilon|nuTilda|cellDisplacement)Final"
    {
        $U;
        relTol          0;
    }
}

PIMPLE
{
    CorrectPhi		yes;
    nOuterCorrectors     3;
    nCorrectors         3;
    nNonOrthogonalCorrectors 3;
    turbOnFinalIterOnly  true;
    pRefCell 0;
    pRefValue 0;
    consistent yes;
}

relaxationFactors
{
    fields
    {
        p               1.0;
    }
    equations
    {
        U               1.0;
        nuTilda         1.0;
    }
}

cache
{
	grad(U);
}

// ************************************************************************* //
