/*--------------------------------*- C++ -*----------------------------------*\
| =========                 |                                                 |
| \\      /  F ield         | OpenFOAM: The Open Source CFD Toolbox           |
|  \\    /   O peration     | Version:  v2006                                 |
|   \\  /    A nd           | Website:  www.openfoam.com                      |
|    \\/     M anipulation  |                                                 |
\*---------------------------------------------------------------------------*/
FoamFile
{
    version     2.0;
    format      ascii;
    class       polyBoundaryMesh;
    location    "constant/polyMesh";
    object      boundary;
}
// * * * * * * * * * * * * * * * * * * * * * * * * * * * * * * * * * * * * * //

3
(
    airfoil
    {
        type            wall;
        inGroups        1(wall);
        nFaces          257;
        startFace       31611;
    }
    farfield
    {
        type            patch;
        nFaces          257;
        startFace       31868;
    }
    fontAndBack
    {
        type            empty;
        inGroups        1(empty);
        nFaces          31868;
        startFace       32125;
    }
)

// ************************************************************************* //
